REMARK  Name = FMT
REMARK  1 active torsions:
REMARK  status: ('A' for Active; 'I' for Inactive)
REMARK    1  A    between atoms: C_1  and  O_3
REMARK                            x       y       z     vdW  Elec       q    Type
REMARK                         _______ _______ _______ _____ _____    ______ ____
ROOT
ATOM      1  C   UNL     1       0.872   0.007   0.103  0.00  0.00    +0.000 C 
ATOM      2  O   UNL     1       0.200  -0.636  -0.682  0.00  0.00    +0.000 OA
ENDROOT
BRANCH   1   3
ATOM      3  O   UNL     1       0.313   0.779   1.047  0.00  0.00    +0.000 OA
ATOM      4  H   UNL     1       0.856   1.263   1.638  0.00  0.00    +0.000 HD
ENDBRANCH   1   3
TORSDOF 1
