REMARK  7 active torsions:
REMARK  status: ('A' for Active; 'I' for Inactive)
REMARK    1  A    between atoms: P_1  and  O_4 
REMARK    2  A    between atoms: O_3  and  C_16 
REMARK    3  A    between atoms: O_4  and  C_18 
REMARK    4  A    between atoms: O_5  and  C_17 
REMARK    5  A    between atoms: N_11  and  C_15 
REMARK    6  A    between atoms: N_13  and  C_19 
REMARK    7  A    between atoms: N_14  and  C_21 
ROOT
HETATM    1  O   UNL     1       1.218  -0.341   1.062  1.00  0.00    -0.330 OA
HETATM    2  C   UNL     1       0.115  -1.068   0.480  1.00  0.00     0.265 C 
HETATM    3  C   UNL     1       0.656  -1.714  -0.792  1.00  0.00     0.201 C 
HETATM    4  C   UNL     1       2.125  -1.903  -0.463  1.00  0.00     0.207 C 
HETATM    5  C   UNL     1       2.423  -0.643   0.334  1.00  0.00     0.307 C 
ENDROOT
BRANCH   2   6
HETATM    6  N   UNL     1      -1.064  -0.159   0.227  1.00  0.00    -0.296 N 
HETATM    7  C   UNL     1      -2.392  -0.508   0.294  1.00  0.00     0.155 A 
HETATM    8  C   UNL     1      -3.110   0.616  -0.004  1.00  0.00     0.218 A 
HETATM    9  N   UNL     1      -2.198   1.616  -0.244  1.00  0.00    -0.330 N 
HETATM   10  C   UNL     1      -0.959   1.133  -0.101  1.00  0.00     0.189 A 
HETATM   11  H   UNL     1      -2.422   2.576  -0.492  1.00  0.00     0.168 HD
BRANCH   7  12
HETATM   12  N   UNL     1      -2.764  -1.803   0.619  1.00  0.00    -0.382 N 
HETATM   13  H   UNL     1      -3.734  -2.099   0.684  1.00  0.00     0.157 HD
HETATM   14  H   UNL     1      -2.115  -2.561   0.806  1.00  0.00     0.157 HD
ENDBRANCH   7  12
BRANCH   8  15
HETATM   15  N   UNL     1      -4.453   0.892  -0.094  1.00  0.00    -0.094 N 
HETATM   16  O   UNL     1      -4.860   2.064  -0.400  1.00  0.00    -0.530 OA
HETATM   17  O   UNL     1      -5.324  -0.016   0.125  1.00  0.00    -0.530 OA
ENDBRANCH   8  15
ENDBRANCH   2   6
BRANCH   3  18
HETATM   18  O   UNL     1      -0.003  -2.930  -1.085  1.00  0.00    -0.388 OA
HETATM   19  H   UNL     1      -0.943  -2.727  -1.226  1.00  0.00     0.210 HD
ENDBRANCH   3  18
BRANCH   5  20
HETATM   20  O   UNL     1       2.749   0.412  -0.563  1.00  0.00    -0.248 OA
BRANCH  20  21
HETATM   21  P   UNL     1       3.714   1.638  -0.025  1.00  0.00     0.424 P 
HETATM   22  O   UNL     1       3.834   2.553  -1.240  1.00  0.00    -0.617 OA
HETATM   23  O   UNL     1       5.021   0.958   0.371  1.00  0.00    -0.617 OA
HETATM   24  O   UNL     1       2.946   2.253   1.141  1.00  0.00    -0.617 OA
ENDBRANCH  20  21
ENDBRANCH   5  20
BRANCH   4  25
HETATM   25  O   UNL     1       2.325  -3.049   0.358  1.00  0.00    -0.388 OA
HETATM   26  H   UNL     1       3.272  -3.087   0.578  1.00  0.00     0.210 HD
ENDBRANCH   4  25
TORSDOF 7
